508
Generated with pygra
C   5.460861522723046     -1.1813490172294885   0.7935000000000001  
C   4.711097743195485     -0.6546828279705329   0.7935000000000001  
C   6.129400892801785     -2.6206627810262226   0.7935000000000001  
C   5.379637113274226     -2.093996591767268   0.7935000000000001  
C   4.629873333746667     -1.5673304025083123   0.7935000000000001  
C   5.683707979415958     -1.6611202718284004   0.7935000000000001  
C   3.8801095542191075     -1.040664213249357   0.7935000000000001  
C   4.9339441998883995     -1.1344540825694451   0.7935000000000001  
C   3.130345774691548     -0.5139980239904014   0.7935000000000001  
C   4.184180420360839     -0.6077878933104893   0.7935000000000001  
C   6.797940262880525     -4.059976544822958   0.7935000000000001  
C   6.048176483352966     -3.5333103555640024   0.7935000000000001  
C   5.298412703825407     -3.0066441663050463   0.7935000000000001  
C   6.352247349494698     -3.1004340356251343   0.7935000000000001  
C   4.548648924297847     -2.479977977046092   0.7935000000000001  
C   5.60248356996714     -2.57376784636618   0.7935000000000001  
C   3.798885144770289     -1.9533117877871362   0.7935000000000001  
C   4.85271979043958     -2.047101657107224   0.7935000000000001  
C   3.04912136524273     -1.4266455985281814   0.7935000000000001  
C   4.1029560109120204     -1.5204354678482692   0.7935000000000001  
C   2.2993575857151702     -0.8999794092692256   0.7935000000000001  
C   3.3531922313844618     -0.9937692785893136   0.7935000000000001  
C   1.5495938061876118     -0.3733132200102699   0.7935000000000001  
C   2.6034284518569026     -0.4671030893303579   0.7935000000000001  
C   5.966952073904147     -4.44595793010178   0.7935000000000001  
C   7.020786719573438     -4.5397477994218685   0.7935000000000001  
C   5.217188294376587     -3.919291740842825   0.7935000000000001  
C   6.27102294004588     -4.013081610162913   0.7935000000000001  
C   4.467424514849029     -3.3926255515838695   0.7935000000000001  
C   5.52125916051832     -3.486415420903957   0.7935000000000001  
C   3.7176607353214703     -2.8659593623249147   0.7935000000000001  
C   4.771495380990761     -2.9597492316450023   0.7935000000000001  
C   2.9678969557939108     -2.339293173065959   0.7935000000000001  
C   4.021731601463202     -2.433083042386047   0.7935000000000001  
C   2.2181331762663516     -1.8126269838070042   0.7935000000000001  
C   3.271967821935643     -1.9064168531270922   0.7935000000000001  
C   1.4683693967387934     -1.285960794548049   0.7935000000000001  
C   2.5222040424080845     -1.3797506638681365   0.7935000000000001  
C   0.7186056172112327     -0.7592946052890932   0.7935000000000001  
C   1.7724402628805243     -0.8530844746091802   0.7935000000000001  
C   1.0226764833529653     -0.3264182853502255   0.7935000000000001  
C   4.386200105400211     -4.305273126121649   0.7935000000000001  
C   5.440034751069501     -4.399062995441737   0.7935000000000001  
C   3.636436325872651     -3.778606936862693   0.7935000000000001  
C   4.690270971541942     -3.872396806182781   0.7935000000000001  
C   2.8866725463450913     -3.2519407476037383   0.7935000000000001  
C   3.9405071920143833     -3.3457306169238263   0.7935000000000001  
C   2.1369087668175326     -2.7252745583447826   0.7935000000000001  
C   3.190743412486824     -2.8190644276648706   0.7935000000000001  
C   1.3871449872899742     -2.198608369085828   0.7935000000000001  
C   2.4409796329592655     -2.292398238405916   0.7935000000000001  
C   1.6912158534317059     -1.7657320491469601   0.7935000000000001  
C   0.9414520739041471     -1.2390658598880044   0.7935000000000001  
C   2.805448136896273     -4.164588322141517   0.7935000000000001  
C   3.8592827825655642     -4.258378191461604   0.7935000000000001  
C   2.0556843573687145     -3.637922132882563   0.7935000000000001  
C   3.1095190030380055     -3.73171200220265   0.7935000000000001  
C   1.305920577841155     -3.111255943623607   0.7935000000000001  
C   2.359755223510446     -3.2050458129436943   0.7935000000000001  
C   1.6099914439828866     -2.6783796236847395   0.7935000000000001  
C   1.9744599479198954     -4.5505697074203395   0.7935000000000001  
C   2.278530814061628     -4.117693387481473   0.7935000000000001  
C   1.5287670345340685     -3.5910271982225175   0.7935000000000001  
C   2.7054796329592636     3.663258463419669   0.7935000000000001  
C   1.955715853431705     4.189924652678624   0.7935000000000001  
C   4.123782782565564     1.697278510363979   0.7935000000000001  
C   3.3740190030380037     2.2239446996229346   0.7935000000000001  
C   2.624255223510445     2.7506108888818903   0.7935000000000001  
C   1.8744914439828868     3.277277078140846   0.7935000000000001  
C   2.928326089652177     3.183487208820757   0.7935000000000001  
C   1.124727664455327     3.8039432673998   0.7935000000000001  
C   2.1785623101246183     3.710153398079713   0.7935000000000001  
C   0.37496388492776733     4.330609456658756   0.7935000000000001  
C   1.4287985305970599     4.236819587338669   0.7935000000000001  
C   4.792322152644304     0.2579647465672452   0.7935000000000001  
C   4.042558373116745     0.7846309358261999   0.7935000000000001  
C   3.2927945935891856     1.3112971250851557   0.7935000000000001  
C   4.346629239258477     1.2175072557650677   0.7935000000000001  
C   2.543030814061627     1.8379633143441114   0.7935000000000001  
C   3.596865459730918     1.7441734450240234   0.7935000000000001  
C   1.7932670345340675     2.3646295036030662   0.7935000000000001  
C   2.847101680203359     2.270839634282978   0.7935000000000001  
C   1.0435032550065078     2.891295692862022   0.7935000000000001  
C   2.0973379006758     2.797505823541934   0.7935000000000001  
C   0.2937394754789481     3.4179618821209767   0.7935000000000001  
C   1.3475741211482406     3.324172012800888   0.7935000000000001  
C   -0.45602430404860966     3.9446280713799324   0.7935000000000001  
C   0.5978103416206808     3.8508382020598435   0.7935000000000001  
C   -1.2057880835761692     4.471294260638888   0.7935000000000001  
C   -0.15195343790687788     4.377504391318799   0.7935000000000001  
C   3.961333963667926     -0.12801663871157903   0.7935000000000001  
C   5.015168609337217     -0.22180650803166702   0.7935000000000001  
C   3.2115701841403665     0.39864955054737666   0.7935000000000001  
C   4.265404829809658     0.3048596812272887   0.7935000000000001  
C   2.461806404612808     0.9253157398063324   0.7935000000000001  
C   3.515641050282099     0.8315258704862435   0.7935000000000001  
C   1.7120426250852483     1.4519819290652871   0.7935000000000001  
C   2.7658772707545394     1.3581920597451993   0.7935000000000001  
C   0.9622788455576894     1.9786481183242428   0.7935000000000001  
C   2.016113491226981     1.884858249004155   0.7935000000000001  
C   0.21251506603012982     2.505314307583198   0.7935000000000001  
C   1.2663497116994213     2.4115244382631107   0.7935000000000001  
C   -0.5372487134974289     3.0319804968421535   0.7935000000000001  
C   0.5165859321718625     2.9381906275220655   0.7935000000000001  
C   -1.2870124930249884     3.5586466861011092   0.7935000000000001  
C   -0.2331778473556971     3.4648568167810203   0.7935000000000001  
C   -0.9829416268832558     3.991523006039976   0.7935000000000001  
C   -1.7327054064108154     4.518189195298931   0.7935000000000001  
C   2.3805819951639884     0.01266816526855337   0.7935000000000001  
C   3.43441664083328     -0.08112170405153553   0.7935000000000001  
C   1.63081821563643     0.5393343545275081   0.7935000000000001  
C   2.6846528613057212     0.4455444852074202   0.7935000000000001  
C   0.8810544361088711     1.0660005437864648   0.7935000000000001  
C   1.9348890817781617     0.9722106744663759   0.7935000000000001  
C   0.13129065658131153     1.5926667330454187   0.7935000000000001  
C   1.185125302250602     1.4988768637253316   0.7935000000000001  
C   -0.6184731229462481     2.119332922304374   0.7935000000000001  
C   0.43536152272304424     2.0255430529842866   0.7935000000000001  
C   -0.31440225680451545     2.5522092422432423   0.7935000000000001  
C   -1.0641660363320748     3.0788754315021967   0.7935000000000001  
C   0.7998300266600519     0.15335296924868486   0.7935000000000001  
C   1.8536646723293435     0.05956309992859688   0.7935000000000001  
C   0.05006624713249231     0.6800191585076406   0.7935000000000001  
C   1.1039008928017837     0.5862292891875526   0.7935000000000001  
C   0.354137113274225     1.1128954784465084   0.7935000000000001  
C   -0.39562666625333465     1.6395616677054632   0.7935000000000001  
C   0.2729127038254058     0.20024790390872932   0.7935000000000001  
C   -0.03115816231632504     -0.2326284160301375   0.7935000000000001  
C   0.6373812077624154     -1.6719421798268723   0.7935000000000001  
C   -0.11238257176514425     -1.1452759905679166   0.7935000000000001  
C   -0.8621463512927039     -0.6186098013089617   0.7935000000000001  
C   0.19168829437658844     -0.7123996706290497   0.7935000000000001  
C   -1.6119101308202615     -0.09194361205000602   0.7935000000000001  
C   -0.5580754851509713     -0.185733481370094   0.7935000000000001  
C   0.5561567983135961     -2.5845897543646514   0.7935000000000001  
C   -0.1936069812139635     -2.0579235651056966   0.7935000000000001  
C   0.8602276644553288     -2.151713434425784   0.7935000000000001  
C   -0.9433707607415213     -1.5312573758467412   0.7935000000000001  
C   0.11046388492776921     -1.6250472451668292   0.7935000000000001  
C   -1.6931345402690807     -1.004591186587786   0.7935000000000001  
C   -0.6392998945997895     -1.098381055907873   0.7935000000000001  
C   -2.4428983197966407     -0.47792499732883026   0.7935000000000001  
C   -1.389063674127348     -0.5717148666489172   0.7935000000000001  
C   -3.1926620993242003     0.048741191930125445   0.7935000000000001  
C   -2.138827453654908     -0.04504867738996346   0.7935000000000001  
C   1.2246961683923367     -4.023903518161386   0.7935000000000001  
C   0.4749323888647769     -3.4972373289024303   0.7935000000000001  
C   -0.2748313906627818     -2.9705711396434746   0.7935000000000001  
C   0.7790032550065096     -3.0643610089635627   0.7935000000000001  
C   -1.0245951701903404     -2.44390495038452   0.7935000000000001  
C   0.029239475478949978     -2.537694819704608   0.7935000000000001  
C   -1.7743589497179     -1.917238761125565   0.7935000000000001  
C   -0.7205243040486088     -2.0110286304456526   0.7935000000000001  
C   -2.5241227292454598     -1.3905725718666084   0.7935000000000001  
C   -1.4702880835761674     -1.4843624411866962   0.7935000000000001  
C   -3.2738865087730176     -0.8639063826076535   0.7935000000000001  
C   -2.2200518631037274     -0.9576962519277415   0.7935000000000001  
C   -4.023650288300577     -0.3372401933486997   0.7935000000000001  
C   -2.969815642631287     -0.43103006266878674   0.7935000000000001  
C   -4.773414067828137     0.18942599591025788   0.7935000000000001  
C   -3.7195794221588447     0.0956361265901699   0.7935000000000001  
C   0.3937079794159586     -4.409884903440208   0.7935000000000001  
C   1.4475426250852501     -4.503674772760296   0.7935000000000001  
C   -0.3560558001116001     -3.883218714181254   0.7935000000000001  
C   0.6977788455576903     -3.9770085835013416   0.7935000000000001  
C   -1.1058195796391597     -3.3565525249222983   0.7935000000000001  
C   -0.05198493396986831     -3.4503423942423863   0.7935000000000001  
C   -1.8555833591667192     -2.8298863356633426   0.7935000000000001  
C   -0.801748713497427     -2.9236762049834306   0.7935000000000001  
C   -2.605347138694277     -2.303220146404388   0.7935000000000001  
C   -1.5515124930249866     -2.397010015724476   0.7935000000000001  
C   -3.355110918221837     -1.776553957145432   0.7935000000000001  
C   -2.3012762725525464     -1.87034382646552   0.7935000000000001  
C   -4.104874697749397     -1.2498877678864768   0.7935000000000001  
C   -3.051040052080104     -1.3436776372065644   0.7935000000000001  
C   -3.8008038316076638     -0.81701144794761   0.7935000000000001  
C   -4.550567611135223     -0.29034525868865435   0.7935000000000001  
C   -1.187043989087979     -4.269200099460077   0.7935000000000001  
C   -0.1332093434186866     -4.362989968780165   0.7935000000000001  
C   -1.9368077686155365     -3.742533910201122   0.7935000000000001  
C   -0.8829731229462463     -3.83632377952121   0.7935000000000001  
C   -2.6865715481430965     -3.215867720942166   0.7935000000000001  
C   -1.6327369024738059     -3.3096575902622543   0.7935000000000001  
C   -3.436335327670656     -2.6892015316832114   0.7935000000000001  
C   -2.3825006820013637     -2.7829914010032994   0.7935000000000001  
C   -3.1322644615289232     -2.2563252117443438   0.7935000000000001  
C   -3.8820282410564833     -1.729659022485388   0.7935000000000001  
C   -2.7677959575919155     -4.128515295479946   0.7935000000000001  
C   -1.7139613119226231     -4.222305164800034   0.7935000000000001  
C   -2.463725091450183     -3.695638975541079   0.7935000000000001  
C   -3.2134888709777427     -3.168972786282122   0.7935000000000001  
C   -2.036776272552546     4.0853128753600645   0.7935000000000001  
C   -1.3682369024738077     2.64599911156333   0.7935000000000001  
C   -2.1180006820013655     3.1726653008222856   0.7935000000000001  
C   -2.8677644615289233     3.6993314900812413   0.7935000000000001  
C   -1.8139298158596326     3.605541620761153   0.7935000000000001  
C   -3.617528241056485     4.225997679340195   0.7935000000000001  
C   -2.5636935953871927     4.132207810020108   0.7935000000000001  
C   -0.6996975323950655     1.2066853477665953   0.7935000000000001  
C   -1.449461311922625     1.733351537025551   0.7935000000000001  
C   -2.199225091450185     2.2600177262845067   0.7935000000000001  
C   -1.1453904457808923     2.1662278569644187   0.7935000000000001  
C   -2.9489888709777428     2.7866839155434624   0.7935000000000001  
C   -1.895154225308452     2.6928940462233735   0.7935000000000001  
C   -3.6987526505053023     3.3133501048024163   0.7935000000000001  
C   -2.6449180048360117     3.219560235482329   0.7935000000000001  
C   -4.448516430032862     3.840016294061372   0.7935000000000001  
C   -3.3946817843635695     3.746226424741285   0.7935000000000001  
C   -5.198280209560419     4.366682483320328   0.7935000000000001  
C   -4.1444455638911295     4.272892614000241   0.7935000000000001  
C   -0.7809219418438847     0.29403777322881636   0.7935000000000001  
C   -1.5306857213714442     0.820703962487772   0.7935000000000001  
C   -0.47685107570215296     0.7269140931676841   0.7935000000000001  
C   -2.280449500899004     1.3473701517467278   0.7935000000000001  
C   -1.2266148552297116     1.2535802824266398   0.7935000000000001  
C   -3.030213280426562     1.8740363410056835   0.7935000000000001  
C   -1.9763786347572694     1.7802464716855946   0.7935000000000001  
C   -3.7799770599541214     2.4007025302646383   0.7935000000000001  
C   -2.726142414284831     2.3069126609445503   0.7935000000000001  
C   -4.529740839481681     2.927368719523594   0.7935000000000001  
C   -3.475906193812389     2.833578850203506   0.7935000000000001  
C   -5.279504619009239     3.454034908782549   0.7935000000000001  
C   -4.225669973339948     3.3602450394624617   0.7935000000000001  
C   -6.029268398536798     3.9807010980415045   0.7935000000000001  
C   -4.975433752867508     3.8869112287214174   0.7935000000000001  
C   -6.779032178064358     4.50736728730046   0.7935000000000001  
C   -5.7251975323950655     4.413577417980371   0.7935000000000001  
C   -2.3616739103478213     0.43472257720894875   0.7935000000000001  
C   -1.3078392646785308     0.34093270788886076   0.7935000000000001  
C   -3.1114376898753813     0.9613887664679045   0.7935000000000001  
C   -2.0576030442060884     0.8675988971478165   0.7935000000000001  
C   -3.861201469402941     1.4880549557268592   0.7935000000000001  
C   -2.8073668237336484     1.3942650864067714   0.7935000000000001  
C   -4.610965248930499     2.014721144985816   0.7935000000000001  
C   -3.557130603261208     1.920931275665727   0.7935000000000001  
C   -5.360729028458058     2.54138733424477   0.7935000000000001  
C   -4.306894382788768     2.4475974649246828   0.7935000000000001  
C   -6.110492807985618     3.0680535235037256   0.7935000000000001  
C   -5.056658162316325     2.9742636541836385   0.7935000000000001  
C   -6.860256587513177     3.5947197127626813   0.7935000000000001  
C   -5.806421941843885     3.500929843442594   0.7935000000000001  
C   -6.5561857213714445     4.027596032701548   0.7935000000000001  
C   -7.305949500899004     4.554262221960504   0.7935000000000001  
C   -3.942425878851758     0.5754073811890802   0.7935000000000001  
C   -2.8885912331824675     0.48161751186899227   0.7935000000000001  
C   -4.692189658379318     1.102073570448036   0.7935000000000001  
C   -3.638355012710027     1.008283701127948   0.7935000000000001  
C   -5.441953437906878     1.6287397597069917   0.7935000000000001  
C   -4.388118792237585     1.5349498903869037   0.7935000000000001  
C   -5.137882571765145     2.0616160796458596   0.7935000000000001  
C   -5.887646351292704     2.5882822689048144   0.7935000000000001  
C   -6.637410130820264     3.1149484581637688   0.7935000000000001  
C   -4.469343201686404     0.6223023158491247   0.7935000000000001  
C   -5.219106981213963     1.1489685051080794   0.7935000000000001  
C   2.766836614173228     4.117735993418476   -0.7935000000000001  
C   3.560336614173228     2.7433536776125718   -0.7935000000000001  
C   2.766836614173228     3.201481116214539   -0.7935000000000001  
C   1.973336614173228     3.659608554816508   -0.7935000000000001  
C   3.031336614173228     3.659608554816508   -0.7935000000000001  
C   1.179836614173228     4.117735993418476   -0.7935000000000001  
C   2.237836614173228     4.117735993418476   -0.7935000000000001  
C   3.560336614173228     1.827098800408635   -0.7935000000000001  
C   2.766836614173228     2.2852262390106026   -0.7935000000000001  
C   3.824836614173228     2.2852262390106026   -0.7935000000000001  
C   1.973336614173228     2.743353677612571   -0.7935000000000001  
C   3.031336614173228     2.743353677612571   -0.7935000000000001  
C   1.179836614173228     3.201481116214539   -0.7935000000000001  
C   2.237836614173228     3.201481116214539   -0.7935000000000001  
C   0.3863366141732279     3.659608554816508   -0.7935000000000001  
C   1.444336614173228     3.659608554816508   -0.7935000000000001  
C   -0.40716338582677214     4.117735993418475   -0.7935000000000001  
C   0.6508366141732279     4.117735993418475   -0.7935000000000001  
C   4.353836614173228     0.4527164846027308   -0.7935000000000001  
C   3.560336614173228     0.9108439232046992   -0.7935000000000001  
C   2.766836614173228     1.3689713618066677   -0.7935000000000001  
C   3.824836614173228     1.3689713618066677   -0.7935000000000001  
C   1.973336614173228     1.827098800408635   -0.7935000000000001  
C   3.031336614173228     1.827098800408635   -0.7935000000000001  
C   1.179836614173228     2.2852262390106026   -0.7935000000000001  
C   2.237836614173228     2.2852262390106026   -0.7935000000000001  
C   0.3863366141732279     2.7433536776125718   -0.7935000000000001  
C   1.444336614173228     2.7433536776125718   -0.7935000000000001  
C   -0.40716338582677214     3.201481116214539   -0.7935000000000001  
C   0.6508366141732279     3.201481116214539   -0.7935000000000001  
C   -1.2006633858267721     3.659608554816507   -0.7935000000000001  
C   -0.1426633858267721     3.659608554816507   -0.7935000000000001  
C   -1.9941633858267722     4.117735993418476   -0.7935000000000001  
C   -0.9361633858267722     4.117735993418476   -0.7935000000000001  
C   -2.787663385826772     4.575863432020443   -0.7935000000000001  
C   5.147336614173228     -0.921665831203173   -0.7935000000000001  
C   4.353836614173228     -0.46353839260120505   -0.7935000000000001  
C   3.560336614173228     -0.005410953999236657   -0.7935000000000001  
C   4.618336614173228     -0.005410953999236657   -0.7935000000000001  
C   2.766836614173228     0.4527164846027308   -0.7935000000000001  
C   3.824836614173228     0.4527164846027308   -0.7935000000000001  
C   1.973336614173228     0.9108439232046992   -0.7935000000000001  
C   3.031336614173228     0.9108439232046992   -0.7935000000000001  
C   1.179836614173228     1.3689713618066677   -0.7935000000000001  
C   2.237836614173228     1.3689713618066677   -0.7935000000000001  
C   0.3863366141732279     1.827098800408635   -0.7935000000000001  
C   1.444336614173228     1.827098800408635   -0.7935000000000001  
C   -0.40716338582677214     2.2852262390106035   -0.7935000000000001  
C   0.6508366141732279     2.2852262390106035   -0.7935000000000001  
C   -1.2006633858267721     2.7433536776125718   -0.7935000000000001  
C   -0.1426633858267721     2.7433536776125718   -0.7935000000000001  
C   -1.9941633858267722     3.201481116214539   -0.7935000000000001  
C   -0.9361633858267722     3.201481116214539   -0.7935000000000001  
C   -2.787663385826772     3.659608554816508   -0.7935000000000001  
C   -1.7296633858267723     3.659608554816508   -0.7935000000000001  
C   -3.5811633858267724     4.117735993418475   -0.7935000000000001  
C   -2.523163385826772     4.117735993418475   -0.7935000000000001  
C   -4.374663385826772     4.575863432020443   -0.7935000000000001  
C   -3.3166633858267724     4.575863432020443   -0.7935000000000001  
C   5.940836614173228     -2.2960481470090772   -0.7935000000000001  
C   5.147336614173228     -1.8379207084071092   -0.7935000000000001  
C   4.353836614173228     -1.379793269805141   -0.7935000000000001  
C   5.411836614173228     -1.379793269805141   -0.7935000000000001  
C   3.560336614173228     -0.9216658312031735   -0.7935000000000001  
C   4.618336614173228     -0.9216658312031735   -0.7935000000000001  
C   2.766836614173228     -0.46353839260120505   -0.7935000000000001  
C   3.824836614173228     -0.46353839260120505   -0.7935000000000001  
C   1.973336614173228     -0.005410953999236657   -0.7935000000000001  
C   3.031336614173228     -0.005410953999236657   -0.7935000000000001  
C   1.179836614173228     0.4527164846027308   -0.7935000000000001  
C   2.237836614173228     0.4527164846027308   -0.7935000000000001  
C   0.3863366141732279     0.9108439232046992   -0.7935000000000001  
C   1.444336614173228     0.9108439232046992   -0.7935000000000001  
C   -0.40716338582677214     1.3689713618066666   -0.7935000000000001  
C   0.6508366141732279     1.3689713618066666   -0.7935000000000001  
C   -1.2006633858267721     1.827098800408635   -0.7935000000000001  
C   -0.1426633858267721     1.827098800408635   -0.7935000000000001  
C   -1.9941633858267722     2.2852262390106035   -0.7935000000000001  
C   -0.9361633858267722     2.2852262390106035   -0.7935000000000001  
C   -2.787663385826772     2.743353677612571   -0.7935000000000001  
C   -1.7296633858267723     2.743353677612571   -0.7935000000000001  
C   -3.5811633858267724     3.201481116214539   -0.7935000000000001  
C   -2.523163385826772     3.201481116214539   -0.7935000000000001  
C   -4.374663385826772     3.659608554816507   -0.7935000000000001  
C   -3.3166633858267724     3.659608554816507   -0.7935000000000001  
C   -5.168163385826772     4.117735993418475   -0.7935000000000001  
C   -4.110163385826772     4.117735993418475   -0.7935000000000001  
C   -5.961663385826772     4.575863432020443   -0.7935000000000001  
C   -4.903663385826772     4.575863432020443   -0.7935000000000001  
C   6.734336614173229     -3.6704304628149815   -0.7935000000000001  
C   5.940836614173228     -3.2123030242130137   -0.7935000000000001  
C   5.147336614173228     -2.754175585611045   -0.7935000000000001  
C   6.205336614173228     -2.754175585611045   -0.7935000000000001  
C   4.353836614173228     -2.2960481470090772   -0.7935000000000001  
C   5.411836614173228     -2.2960481470090772   -0.7935000000000001  
C   3.560336614173228     -1.8379207084071092   -0.7935000000000001  
C   4.618336614173228     -1.8379207084071092   -0.7935000000000001  
C   2.766836614173228     -1.3797932698051414   -0.7935000000000001  
C   3.824836614173228     -1.3797932698051414   -0.7935000000000001  
C   1.973336614173228     -0.921665831203173   -0.7935000000000001  
C   3.031336614173228     -0.921665831203173   -0.7935000000000001  
C   1.179836614173228     -0.46353839260120505   -0.7935000000000001  
C   2.237836614173228     -0.46353839260120505   -0.7935000000000001  
C   0.3863366141732279     -0.0054109539992371275   -0.7935000000000001  
C   1.444336614173228     -0.0054109539992371275   -0.7935000000000001  
C   -0.40716338582677214     0.4527164846027308   -0.7935000000000001  
C   0.6508366141732279     0.4527164846027308   -0.7935000000000001  
C   -1.2006633858267721     0.9108439232046992   -0.7935000000000001  
C   -0.1426633858267721     0.9108439232046992   -0.7935000000000001  
C   -1.9941633858267722     1.3689713618066677   -0.7935000000000001  
C   -0.9361633858267722     1.3689713618066677   -0.7935000000000001  
C   -2.787663385826772     1.827098800408636   -0.7935000000000001  
C   -1.7296633858267723     1.827098800408636   -0.7935000000000001  
C   -3.5811633858267724     2.2852262390106035   -0.7935000000000001  
C   -2.523163385826772     2.2852262390106035   -0.7935000000000001  
C   -4.374663385826772     2.7433536776125718   -0.7935000000000001  
C   -3.3166633858267724     2.7433536776125718   -0.7935000000000001  
C   -5.168163385826772     3.201481116214539   -0.7935000000000001  
C   -4.110163385826772     3.201481116214539   -0.7935000000000001  
C   -5.961663385826772     3.659608554816508   -0.7935000000000001  
C   -4.903663385826772     3.659608554816508   -0.7935000000000001  
C   -6.755163385826773     4.117735993418476   -0.7935000000000001  
C   -5.697163385826772     4.117735993418476   -0.7935000000000001  
C   -6.490663385826773     4.575863432020443   -0.7935000000000001  
C   6.734336614173229     -4.586685340018918   -0.7935000000000001  
C   5.940836614173228     -4.12855790141695   -0.7935000000000001  
C   6.9988366141732286     -4.12855790141695   -0.7935000000000001  
C   5.147336614173228     -3.6704304628149815   -0.7935000000000001  
C   6.205336614173228     -3.6704304628149815   -0.7935000000000001  
C   4.353836614173228     -3.2123030242130137   -0.7935000000000001  
C   5.411836614173228     -3.2123030242130137   -0.7935000000000001  
C   3.560336614173228     -2.754175585611045   -0.7935000000000001  
C   4.618336614173228     -2.754175585611045   -0.7935000000000001  
C   2.766836614173228     -2.2960481470090772   -0.7935000000000001  
C   3.824836614173228     -2.2960481470090772   -0.7935000000000001  
C   1.973336614173228     -1.8379207084071092   -0.7935000000000001  
C   3.031336614173228     -1.8379207084071092   -0.7935000000000001  
C   1.179836614173228     -1.379793269805141   -0.7935000000000001  
C   2.237836614173228     -1.379793269805141   -0.7935000000000001  
C   0.3863366141732279     -0.921665831203173   -0.7935000000000001  
C   1.444336614173228     -0.921665831203173   -0.7935000000000001  
C   -0.40716338582677214     -0.46353839260120505   -0.7935000000000001  
C   0.6508366141732279     -0.46353839260120505   -0.7935000000000001  
C   -1.2006633858267721     -0.0054109539992371275   -0.7935000000000001  
C   -0.1426633858267721     -0.0054109539992371275   -0.7935000000000001  
C   -1.9941633858267722     0.4527164846027308   -0.7935000000000001  
C   -0.9361633858267722     0.4527164846027308   -0.7935000000000001  
C   -2.787663385826772     0.9108439232046992   -0.7935000000000001  
C   -1.7296633858267723     0.9108439232046992   -0.7935000000000001  
C   -3.5811633858267724     1.3689713618066677   -0.7935000000000001  
C   -2.523163385826772     1.3689713618066677   -0.7935000000000001  
C   -4.374663385826772     1.827098800408635   -0.7935000000000001  
C   -3.3166633858267724     1.827098800408635   -0.7935000000000001  
C   -5.168163385826772     2.2852262390106035   -0.7935000000000001  
C   -4.110163385826772     2.2852262390106035   -0.7935000000000001  
C   -5.961663385826772     2.743353677612571   -0.7935000000000001  
C   -4.903663385826772     2.743353677612571   -0.7935000000000001  
C   -5.697163385826772     3.201481116214539   -0.7935000000000001  
C   -6.490663385826773     3.659608554816508   -0.7935000000000001  
C   5.147336614173228     -4.586685340018918   -0.7935000000000001  
C   6.205336614173228     -4.586685340018918   -0.7935000000000001  
C   4.353836614173228     -4.12855790141695   -0.7935000000000001  
C   5.411836614173228     -4.12855790141695   -0.7935000000000001  
C   3.560336614173228     -3.6704304628149815   -0.7935000000000001  
C   4.618336614173228     -3.6704304628149815   -0.7935000000000001  
C   2.766836614173228     -3.212303024213013   -0.7935000000000001  
C   3.824836614173228     -3.212303024213013   -0.7935000000000001  
C   1.973336614173228     -2.754175585611045   -0.7935000000000001  
C   3.031336614173228     -2.754175585611045   -0.7935000000000001  
C   1.179836614173228     -2.2960481470090772   -0.7935000000000001  
C   2.237836614173228     -2.2960481470090772   -0.7935000000000001  
C   0.3863366141732279     -1.8379207084071087   -0.7935000000000001  
C   1.444336614173228     -1.8379207084071087   -0.7935000000000001  
C   -0.40716338582677214     -1.379793269805141   -0.7935000000000001  
C   0.6508366141732279     -1.379793269805141   -0.7935000000000001  
C   -1.2006633858267721     -0.921665831203173   -0.7935000000000001  
C   -0.1426633858267721     -0.921665831203173   -0.7935000000000001  
C   -1.9941633858267722     -0.46353839260120505   -0.7935000000000001  
C   -0.9361633858267722     -0.46353839260120505   -0.7935000000000001  
C   -2.787663385826772     -0.0054109539992371275   -0.7935000000000001  
C   -1.7296633858267723     -0.0054109539992371275   -0.7935000000000001  
C   -3.5811633858267724     0.4527164846027308   -0.7935000000000001  
C   -2.523163385826772     0.4527164846027308   -0.7935000000000001  
C   -4.374663385826772     0.9108439232046992   -0.7935000000000001  
C   -3.3166633858267724     0.9108439232046992   -0.7935000000000001  
C   -5.168163385826772     1.3689713618066666   -0.7935000000000001  
C   -4.110163385826772     1.3689713618066666   -0.7935000000000001  
C   -5.961663385826772     1.827098800408635   -0.7935000000000001  
C   -4.903663385826772     1.827098800408635   -0.7935000000000001  
C   -5.697163385826772     2.2852262390106026   -0.7935000000000001  
C   3.560336614173228     -4.586685340018918   -0.7935000000000001  
C   4.618336614173228     -4.586685340018918   -0.7935000000000001  
C   2.766836614173228     -4.12855790141695   -0.7935000000000001  
C   3.824836614173228     -4.12855790141695   -0.7935000000000001  
C   1.973336614173228     -3.670430462814981   -0.7935000000000001  
C   3.031336614173228     -3.670430462814981   -0.7935000000000001  
C   1.179836614173228     -3.2123030242130137   -0.7935000000000001  
C   2.237836614173228     -3.2123030242130137   -0.7935000000000001  
C   0.3863366141732279     -2.754175585611045   -0.7935000000000001  
C   1.444336614173228     -2.754175585611045   -0.7935000000000001  
C   -0.40716338582677214     -2.296048147009077   -0.7935000000000001  
C   0.6508366141732279     -2.296048147009077   -0.7935000000000001  
C   -1.2006633858267721     -1.8379207084071092   -0.7935000000000001  
C   -0.1426633858267721     -1.8379207084071092   -0.7935000000000001  
C   -1.9941633858267722     -1.379793269805141   -0.7935000000000001  
C   -0.9361633858267722     -1.379793269805141   -0.7935000000000001  
C   -2.787663385826772     -0.9216658312031735   -0.7935000000000001  
C   -1.7296633858267723     -0.9216658312031735   -0.7935000000000001  
C   -3.5811633858267724     -0.46353839260120505   -0.7935000000000001  
C   -2.523163385826772     -0.46353839260120505   -0.7935000000000001  
C   -4.374663385826772     -0.005410953999236657   -0.7935000000000001  
C   -3.3166633858267724     -0.005410953999236657   -0.7935000000000001  
C   -5.168163385826772     0.45271648460273173   -0.7935000000000001  
C   -4.110163385826772     0.45271648460273173   -0.7935000000000001  
C   -4.903663385826772     0.9108439232046992   -0.7935000000000001  
C   -5.697163385826772     1.3689713618066677   -0.7935000000000001  
C   3.031336614173228     -4.586685340018918   -0.7935000000000001  
C   1.179836614173228     -4.12855790141695   -0.7935000000000001  
C   2.237836614173228     -4.12855790141695   -0.7935000000000001  
C   0.3863366141732279     -3.6704304628149815   -0.7935000000000001  
C   1.444336614173228     -3.6704304628149815   -0.7935000000000001  
C   -0.40716338582677214     -3.2123030242130137   -0.7935000000000001  
C   0.6508366141732279     -3.2123030242130137   -0.7935000000000001  
C   -1.2006633858267721     -2.754175585611045   -0.7935000000000001  
C   -0.1426633858267721     -2.754175585611045   -0.7935000000000001  
C   -1.9941633858267722     -2.2960481470090772   -0.7935000000000001  
C   -0.9361633858267722     -2.2960481470090772   -0.7935000000000001  
C   -2.787663385826772     -1.8379207084071092   -0.7935000000000001  
C   -1.7296633858267723     -1.8379207084071092   -0.7935000000000001  
C   -3.5811633858267724     -1.3797932698051414   -0.7935000000000001  
C   -2.523163385826772     -1.3797932698051414   -0.7935000000000001  
C   -4.374663385826772     -0.9216658312031735   -0.7935000000000001  
C   -3.3166633858267724     -0.9216658312031735   -0.7935000000000001  
C   -4.110163385826772     -0.46353839260120505   -0.7935000000000001  
C   -4.903663385826772     -0.005410953999236657   -0.7935000000000001  
C   -0.40716338582677214     -4.12855790141695   -0.7935000000000001  
C   0.6508366141732279     -4.12855790141695   -0.7935000000000001  
C   -1.2006633858267721     -3.6704304628149815   -0.7935000000000001  
C   -0.1426633858267721     -3.6704304628149815   -0.7935000000000001  
C   -1.9941633858267722     -3.212303024213013   -0.7935000000000001  
C   -0.9361633858267722     -3.212303024213013   -0.7935000000000001  
C   -2.787663385826772     -2.754175585611045   -0.7935000000000001  
C   -1.7296633858267723     -2.754175585611045   -0.7935000000000001  
C   -3.5811633858267724     -2.2960481470090772   -0.7935000000000001  
C   -2.523163385826772     -2.2960481470090772   -0.7935000000000001  
C   -3.3166633858267724     -1.8379207084071092   -0.7935000000000001  
C   -4.110163385826772     -1.3797932698051414   -0.7935000000000001  
C   -1.9941633858267722     -4.12855790141695   -0.7935000000000001  
C   -0.9361633858267722     -4.12855790141695   -0.7935000000000001  
C   -2.787663385826772     -3.670430462814981   -0.7935000000000001  
C   -1.7296633858267723     -3.670430462814981   -0.7935000000000001  
C   -2.523163385826772     -3.212303024213013   -0.7935000000000001  
C   -3.3166633858267724     -2.754175585611045   -0.7935000000000001  
C   -2.523163385826772     -4.12855790141695   -0.7935000000000001  
