200
Generated with pygra
C   -0.2645     -4.12314694742   0.0  
C   0.2645     -4.12314694742   0.0  
C   -1.058     -3.66501950882   0.0  
C   -0.529     -3.66501950882   0.0  
C   -1.8515     -3.20689207021   0.0  
C   -1.3225     -3.20689207021   0.0  
C   -2.645     -2.74876463161   0.0  
C   -2.116     -2.74876463161   0.0  
C   -3.4385     -2.29063719301   0.0  
C   -2.9095     -2.29063719301   0.0  
C   -4.232     -1.83250975441   0.0  
C   -3.703     -1.83250975441   0.0  
C   -5.0255     -1.37438231581   0.0  
C   -4.4965     -1.37438231581   0.0  
C   -5.819     -0.916254877204   0.0  
C   -5.29     -0.916254877204   0.0  
C   -6.6125     -0.458127438602   0.0  
C   -6.0835     -0.458127438602   0.0  
C   -7.406     -1.44712686279e-15   0.0  
C   -6.877     -1.44712686279e-15   0.0  
C   0.529     -3.66501950882   0.0  
C   1.058     -3.66501950882   0.0  
C   -0.2645     -3.20689207021   0.0  
C   0.2645     -3.20689207021   0.0  
C   -1.058     -2.74876463161   0.0  
C   -0.529     -2.74876463161   0.0  
C   -1.8515     -2.29063719301   0.0  
C   -1.3225     -2.29063719301   0.0  
C   -2.645     -1.83250975441   0.0  
C   -2.116     -1.83250975441   0.0  
C   -3.4385     -1.37438231581   0.0  
C   -2.9095     -1.37438231581   0.0  
C   -4.232     -0.916254877204   0.0  
C   -3.703     -0.916254877204   0.0  
C   -5.0255     -0.458127438602   0.0  
C   -4.4965     -0.458127438602   0.0  
C   -5.819     -1.44712686279e-15   0.0  
C   -5.29     -1.44712686279e-15   0.0  
C   -6.6125     0.458127438602   0.0  
C   -6.0835     0.458127438602   0.0  
C   1.3225     -3.20689207021   0.0  
C   1.8515     -3.20689207021   0.0  
C   0.529     -2.74876463161   0.0  
C   1.058     -2.74876463161   0.0  
C   -0.2645     -2.29063719301   0.0  
C   0.2645     -2.29063719301   0.0  
C   -1.058     -1.83250975441   0.0  
C   -0.529     -1.83250975441   0.0  
C   -1.8515     -1.37438231581   0.0  
C   -1.3225     -1.37438231581   0.0  
C   -2.645     -0.916254877204   0.0  
C   -2.116     -0.916254877204   0.0  
C   -3.4385     -0.458127438602   0.0  
C   -2.9095     -0.458127438602   0.0  
C   -4.232     -1.44712686279e-15   0.0  
C   -3.703     -1.44712686279e-15   0.0  
C   -5.0255     0.458127438602   0.0  
C   -4.4965     0.458127438602   0.0  
C   -5.819     0.916254877204   0.0  
C   -5.29     0.916254877204   0.0  
C   2.116     -2.74876463161   0.0  
C   2.645     -2.74876463161   0.0  
C   1.3225     -2.29063719301   0.0  
C   1.8515     -2.29063719301   0.0  
C   0.529     -1.83250975441   0.0  
C   1.058     -1.83250975441   0.0  
C   -0.2645     -1.37438231581   0.0  
C   0.2645     -1.37438231581   0.0  
C   -1.058     -0.916254877204   0.0  
C   -0.529     -0.916254877204   0.0  
C   -1.8515     -0.458127438602   0.0  
C   -1.3225     -0.458127438602   0.0  
C   -2.645     -1.44712686279e-15   0.0  
C   -2.116     -1.44712686279e-15   0.0  
C   -3.4385     0.458127438602   0.0  
C   -2.9095     0.458127438602   0.0  
C   -4.232     0.916254877204   0.0  
C   -3.703     0.916254877204   0.0  
C   -5.0255     1.37438231581   0.0  
C   -4.4965     1.37438231581   0.0  
C   2.9095     -2.29063719301   0.0  
C   3.4385     -2.29063719301   0.0  
C   2.116     -1.83250975441   0.0  
C   2.645     -1.83250975441   0.0  
C   1.3225     -1.37438231581   0.0  
C   1.8515     -1.37438231581   0.0  
C   0.529     -0.916254877204   0.0  
C   1.058     -0.916254877204   0.0  
C   -0.2645     -0.458127438602   0.0  
C   0.2645     -0.458127438602   0.0  
C   -1.058     -1.44712686279e-15   0.0  
C   -0.529     -1.44712686279e-15   0.0  
C   -1.8515     0.458127438602   0.0  
C   -1.3225     0.458127438602   0.0  
C   -2.645     0.916254877204   0.0  
C   -2.116     0.916254877204   0.0  
C   -3.4385     1.37438231581   0.0  
C   -2.9095     1.37438231581   0.0  
C   -4.232     1.83250975441   0.0  
C   -3.703     1.83250975441   0.0  
C   3.703     -1.83250975441   0.0  
C   4.232     -1.83250975441   0.0  
C   2.9095     -1.37438231581   0.0  
C   3.4385     -1.37438231581   0.0  
C   2.116     -0.916254877204   0.0  
C   2.645     -0.916254877204   0.0  
C   1.3225     -0.458127438602   0.0  
C   1.8515     -0.458127438602   0.0  
C   0.529     -1.44712686279e-15   0.0  
C   1.058     -1.44712686279e-15   0.0  
C   -0.2645     0.458127438602   0.0  
C   0.2645     0.458127438602   0.0  
C   -1.058     0.916254877204   0.0  
C   -0.529     0.916254877204   0.0  
C   -1.8515     1.37438231581   0.0  
C   -1.3225     1.37438231581   0.0  
C   -2.645     1.83250975441   0.0  
C   -2.116     1.83250975441   0.0  
C   -3.4385     2.29063719301   0.0  
C   -2.9095     2.29063719301   0.0  
C   4.4965     -1.37438231581   0.0  
C   5.0255     -1.37438231581   0.0  
C   3.703     -0.916254877204   0.0  
C   4.232     -0.916254877204   0.0  
C   2.9095     -0.458127438602   0.0  
C   3.4385     -0.458127438602   0.0  
C   2.116     -1.44712686279e-15   0.0  
C   2.645     -1.44712686279e-15   0.0  
C   1.3225     0.458127438602   0.0  
C   1.8515     0.458127438602   0.0  
C   0.529     0.916254877204   0.0  
C   1.058     0.916254877204   0.0  
C   -0.2645     1.37438231581   0.0  
C   0.2645     1.37438231581   0.0  
C   -1.058     1.83250975441   0.0  
C   -0.529     1.83250975441   0.0  
C   -1.8515     2.29063719301   0.0  
C   -1.3225     2.29063719301   0.0  
C   -2.645     2.74876463161   0.0  
C   -2.116     2.74876463161   0.0  
C   5.29     -0.916254877204   0.0  
C   5.819     -0.916254877204   0.0  
C   4.4965     -0.458127438602   0.0  
C   5.0255     -0.458127438602   0.0  
C   3.703     -1.44712686279e-15   0.0  
C   4.232     -1.44712686279e-15   0.0  
C   2.9095     0.458127438602   0.0  
C   3.4385     0.458127438602   0.0  
C   2.116     0.916254877204   0.0  
C   2.645     0.916254877204   0.0  
C   1.3225     1.37438231581   0.0  
C   1.8515     1.37438231581   0.0  
C   0.529     1.83250975441   0.0  
C   1.058     1.83250975441   0.0  
C   -0.2645     2.29063719301   0.0  
C   0.2645     2.29063719301   0.0  
C   -1.058     2.74876463161   0.0  
C   -0.529     2.74876463161   0.0  
C   -1.8515     3.20689207021   0.0  
C   -1.3225     3.20689207021   0.0  
C   6.0835     -0.458127438602   0.0  
C   6.6125     -0.458127438602   0.0  
C   5.29     -1.44712686279e-15   0.0  
C   5.819     -1.44712686279e-15   0.0  
C   4.4965     0.458127438602   0.0  
C   5.0255     0.458127438602   0.0  
C   3.703     0.916254877204   0.0  
C   4.232     0.916254877204   0.0  
C   2.9095     1.37438231581   0.0  
C   3.4385     1.37438231581   0.0  
C   2.116     1.83250975441   0.0  
C   2.645     1.83250975441   0.0  
C   1.3225     2.29063719301   0.0  
C   1.8515     2.29063719301   0.0  
C   0.529     2.74876463161   0.0  
C   1.058     2.74876463161   0.0  
C   -0.2645     3.20689207021   0.0  
C   0.2645     3.20689207021   0.0  
C   -1.058     3.66501950882   0.0  
C   -0.529     3.66501950882   0.0  
C   6.877     -1.44712686279e-15   0.0  
C   7.406     -1.44712686279e-15   0.0  
C   6.0835     0.458127438602   0.0  
C   6.6125     0.458127438602   0.0  
C   5.29     0.916254877204   0.0  
C   5.819     0.916254877204   0.0  
C   4.4965     1.37438231581   0.0  
C   5.0255     1.37438231581   0.0  
C   3.703     1.83250975441   0.0  
C   4.232     1.83250975441   0.0  
C   2.9095     2.29063719301   0.0  
C   3.4385     2.29063719301   0.0  
C   2.116     2.74876463161   0.0  
C   2.645     2.74876463161   0.0  
C   1.3225     3.20689207021   0.0  
C   1.8515     3.20689207021   0.0  
C   0.529     3.66501950882   0.0  
C   1.058     3.66501950882   0.0  
C   -0.2645     4.12314694742   0.0  
C   0.2645     4.12314694742   0.0  
