4
Generated with pygra
C   -0.22906371930098404     0.13224999999999998   -0.7935000000000001  
C   0.22906371930098404     -0.13224999999999998   -0.7935000000000001  
C   -0.22906371930098404     0.13224999999999998   0.7935000000000001  
C   0.22906371930098404     -0.13224999999999998   0.7935000000000001  
