18
Generated with pygra
C   -0.2645     -0.9162548772039362   0.0  
C   0.2645     -0.9162548772039362   0.0  
C   -1.058     -0.4581274386019681   0.0  
C   -0.529     -0.4581274386019681   0.0  
C   -1.8515000000000001     -6.525644222518976e-17   0.0  
C   -1.3225     -6.525644222518976e-17   0.0  
C   0.529     -0.4581274386019681   0.0  
C   1.058     -0.4581274386019681   0.0  
C   -0.2645     -6.525644222518976e-17   0.0  
C   0.2645     -6.525644222518976e-17   0.0  
C   -1.058     0.4581274386019681   0.0  
C   -0.529     0.4581274386019681   0.0  
C   1.3225     -6.525644222518976e-17   0.0  
C   1.8515000000000001     -6.525644222518976e-17   0.0  
C   0.529     0.4581274386019681   0.0  
C   1.058     0.4581274386019681   0.0  
C   -0.2645     0.916254877203936   0.0  
C   0.2645     0.916254877203936   0.0  
