320
Generated with pygra
C   0.528999999999993     -36.421131368856464   0.0  
C   0.2644999999999931     -35.96300393025449   0.0  
C   -0.2645000000000069     -35.96300393025449   0.0  
C   -0.5290000000000069     -36.421131368856464   0.0  
C   0.5289999999999931     -35.504876491652524   0.0  
C   0.26449999999999324     -35.04674905305056   0.0  
C   -0.26450000000000673     -35.04674905305056   0.0  
C   -0.5290000000000068     -35.504876491652524   0.0  
C   0.5289999999999934     -34.588621614448584   0.0  
C   0.2644999999999934     -34.13049417584662   0.0  
C   -0.2645000000000065     -34.13049417584662   0.0  
C   -0.5290000000000066     -34.588621614448584   0.0  
C   0.5289999999999936     -33.67236673724465   0.0  
C   0.2644999999999936     -33.21423929864268   0.0  
C   -0.26450000000000634     -33.21423929864268   0.0  
C   -0.5290000000000065     -33.67236673724465   0.0  
C   0.5289999999999937     -32.75611186004072   0.0  
C   0.26449999999999374     -32.29798442143875   0.0  
C   -0.2645000000000062     -32.29798442143875   0.0  
C   -0.5290000000000062     -32.75611186004072   0.0  
C   0.5289999999999938     -31.839856982836782   0.0  
C   0.2644999999999939     -31.381729544234812   0.0  
C   -0.264500000000006     -31.381729544234812   0.0  
C   -0.5290000000000061     -31.839856982836782   0.0  
C   0.528999999999994     -30.923602105632842   0.0  
C   0.26449999999999413     -30.465474667030875   0.0  
C   -0.26450000000000584     -30.465474667030875   0.0  
C   -0.5290000000000059     -30.923602105632842   0.0  
C   0.5289999999999943     -30.007347228428905   0.0  
C   0.2644999999999943     -29.549219789826942   0.0  
C   -0.2645000000000057     -29.549219789826942   0.0  
C   -0.5290000000000058     -30.007347228428905   0.0  
C   0.5289999999999944     -29.091092351224972   0.0  
C   0.26449999999999446     -28.632964912623002   0.0  
C   -0.26450000000000545     -28.632964912623002   0.0  
C   -0.5290000000000056     -29.091092351224972   0.0  
C   0.5289999999999945     -28.174837474021036   0.0  
C   0.26449999999999463     -27.716710035419066   0.0  
C   -0.2645000000000053     -27.716710035419066   0.0  
C   -0.5290000000000055     -28.174837474021036   0.0  
C   0.5289999999999947     -27.2585825968171   0.0  
C   0.2644999999999948     -26.800455158215133   0.0  
C   -0.2645000000000051     -26.800455158215133   0.0  
C   -0.5290000000000052     -27.2585825968171   0.0  
C   0.528999999999995     -26.342327719613163   0.0  
C   0.264499999999995     -25.884200281011193   0.0  
C   -0.26450000000000495     -25.884200281011193   0.0  
C   -0.529000000000005     -26.342327719613163   0.0  
C   0.5289999999999951     -25.42607284240923   0.0  
C   0.2644999999999952     -24.967945403807256   0.0  
C   -0.2645000000000048     -24.967945403807256   0.0  
C   -0.5290000000000048     -25.42607284240923   0.0  
C   0.5289999999999953     -24.50981796520529   0.0  
C   0.26449999999999535     -24.051690526603323   0.0  
C   -0.2645000000000046     -24.051690526603323   0.0  
C   -0.5290000000000047     -24.50981796520529   0.0  
C   0.5289999999999955     -23.593563088001353   0.0  
C   0.2644999999999955     -23.135435649399387   0.0  
C   -0.2645000000000044     -23.135435649399387   0.0  
C   -0.5290000000000045     -23.593563088001353   0.0  
C   0.5289999999999957     -22.67730821079742   0.0  
C   0.2644999999999957     -22.21918077219545   0.0  
C   -0.26450000000000423     -22.21918077219545   0.0  
C   -0.5290000000000044     -22.67730821079742   0.0  
C   0.5289999999999958     -21.76105333359348   0.0  
C   0.26449999999999585     -21.302925894991514   0.0  
C   -0.26450000000000407     -21.302925894991514   0.0  
C   -0.5290000000000041     -21.76105333359348   0.0  
C   0.5289999999999959     -20.844798456389547   0.0  
C   0.26449999999999607     -20.386671017787577   0.0  
C   -0.2645000000000039     -20.386671017787577   0.0  
C   -0.529000000000004     -20.844798456389547   0.0  
C   0.5289999999999961     -19.92854357918561   0.0  
C   0.26449999999999624     -19.47041614058364   0.0  
C   -0.26450000000000373     -19.47041614058364   0.0  
C   -0.5290000000000038     -19.92854357918561   0.0  
C   0.5289999999999964     -19.012288701981674   0.0  
C   0.2644999999999964     -18.554161263379708   0.0  
C   -0.2645000000000035     -18.554161263379708   0.0  
C   -0.5290000000000037     -19.012288701981674   0.0  
C   0.5289999999999965     -18.096033824777738   0.0  
C   0.26449999999999657     -17.63790638617577   0.0  
C   -0.26450000000000334     -17.63790638617577   0.0  
C   -0.5290000000000035     -18.096033824777738   0.0  
C   0.5289999999999966     -17.179778947573798   0.0  
C   0.26449999999999674     -16.721651508971835   0.0  
C   -0.2645000000000032     -16.721651508971835   0.0  
C   -0.5290000000000034     -17.179778947573798   0.0  
C   0.5289999999999968     -16.263524070369865   0.0  
C   0.2644999999999969     -15.805396631767898   0.0  
C   -0.264500000000003     -15.805396631767898   0.0  
C   -0.5290000000000031     -16.263524070369865   0.0  
C   0.5289999999999971     -15.34726919316593   0.0  
C   0.2644999999999971     -14.889141754563964   0.0  
C   -0.26450000000000284     -14.889141754563964   0.0  
C   -0.5290000000000029     -15.34726919316593   0.0  
C   0.5289999999999973     -14.43101431596199   0.0  
C   0.2644999999999973     -13.972886877360025   0.0  
C   -0.2645000000000027     -13.972886877360025   0.0  
C   -0.5290000000000027     -14.43101431596199   0.0  
C   0.5289999999999974     -13.514759438758055   0.0  
C   0.26449999999999746     -13.05663200015609   0.0  
C   -0.26450000000000246     -13.05663200015609   0.0  
C   -0.5290000000000026     -13.514759438758055   0.0  
C   0.5289999999999976     -12.59850456155412   0.0  
C   0.2644999999999976     -12.140377122952156   0.0  
C   -0.2645000000000023     -12.140377122952156   0.0  
C   -0.5290000000000024     -12.59850456155412   0.0  
C   0.5289999999999978     -11.682249684350186   0.0  
C   0.2644999999999978     -11.224122245748221   0.0  
C   -0.2645000000000021     -11.224122245748221   0.0  
C   -0.5290000000000022     -11.682249684350186   0.0  
C   0.5289999999999979     -10.765994807146248   0.0  
C   0.26449999999999796     -10.307867368544281   0.0  
C   -0.26450000000000196     -10.307867368544281   0.0  
C   -0.529000000000002     -10.765994807146248   0.0  
C   0.528999999999998     -9.849739929942313   0.0  
C   0.2644999999999982     -9.391612491340346   0.0  
C   -0.2645000000000018     -9.391612491340346   0.0  
C   -0.5290000000000019     -9.849739929942313   0.0  
C   0.5289999999999982     -8.933485052738378   0.0  
C   0.26449999999999835     -8.475357614136412   0.0  
C   -0.2645000000000016     -8.475357614136412   0.0  
C   -0.5290000000000017     -8.933485052738378   0.0  
C   0.5289999999999985     -8.01723017553444   0.0  
C   0.2644999999999985     -7.559102736932474   0.0  
C   -0.2645000000000014     -7.559102736932474   0.0  
C   -0.5290000000000016     -8.01723017553444   0.0  
C   0.5289999999999986     -7.100975298330505   0.0  
C   0.2644999999999987     -6.64284785972854   0.0  
C   -0.26450000000000123     -6.64284785972854   0.0  
C   -0.5290000000000014     -7.100975298330505   0.0  
C   0.5289999999999987     -6.18472042112657   0.0  
C   0.26449999999999885     -5.726592982524604   0.0  
C   -0.26450000000000107     -5.726592982524604   0.0  
C   -0.5290000000000012     -6.18472042112657   0.0  
C   0.5289999999999989     -5.268465543922631   0.0  
C   0.26449999999999907     -4.810338105320666   0.0  
C   -0.2645000000000009     -4.810338105320666   0.0  
C   -0.5290000000000009     -5.268465543922631   0.0  
C   0.5289999999999992     -4.352210666718697   0.0  
C   0.26449999999999924     -3.8940832281167306   0.0  
C   -0.26450000000000073     -3.8940832281167306   0.0  
C   -0.5290000000000008     -4.352210666718697   0.0  
C   0.5289999999999994     -3.435955789514761   0.0  
C   0.2644999999999994     -2.9778283509127954   0.0  
C   -0.26450000000000057     -2.9778283509127954   0.0  
C   -0.5290000000000006     -3.435955789514761   0.0  
C   0.5289999999999995     -2.5197009123108263   0.0  
C   0.26449999999999957     -2.0615734737088567   0.0  
C   -0.26450000000000035     -2.0615734737088567   0.0  
C   -0.5290000000000005     -2.5197009123108263   0.0  
C   0.5289999999999997     -1.6034460351068913   0.0  
C   0.26449999999999974     -1.1453185965049182   0.0  
C   -0.2645000000000002     -1.1453185965049182   0.0  
C   -0.5290000000000002     -1.6034460351068913   0.0  
C   0.5289999999999999     -0.6871911579029527   0.0  
C   0.2644999999999999     -0.22906371930097957   0.0  
C   -0.2645     -0.22906371930097957   0.0  
C   -0.5290000000000001     -0.6871911579029527   0.0  
C   0.529     0.22906371930097846   0.0  
C   0.2645000000000001     0.6871911579029515   0.0  
C   -0.26449999999999985     0.6871911579029515   0.0  
C   -0.5289999999999999     0.22906371930097846   0.0  
C   0.5290000000000001     1.1453185965049173   0.0  
C   0.2645000000000003     1.6034460351068902   0.0  
C   -0.2644999999999997     1.6034460351068902   0.0  
C   -0.5289999999999997     1.1453185965049173   0.0  
C   0.5290000000000004     2.061573473708856   0.0  
C   0.26450000000000046     2.519700912310829   0.0  
C   -0.26449999999999946     2.519700912310829   0.0  
C   -0.5289999999999996     2.061573473708856   0.0  
C   0.5290000000000006     2.977828350912787   0.0  
C   0.2645000000000007     3.43595578951476   0.0  
C   -0.2644999999999993     3.43595578951476   0.0  
C   -0.5289999999999994     2.977828350912787   0.0  
C   0.5290000000000007     3.8940832281167257   0.0  
C   0.26450000000000085     4.352210666718698   0.0  
C   -0.2644999999999991     4.352210666718698   0.0  
C   -0.5289999999999992     3.8940832281167257   0.0  
C   0.5290000000000008     4.810338105320664   0.0  
C   0.264500000000001     5.268465543922637   0.0  
C   -0.26449999999999896     5.268465543922637   0.0  
C   -0.528999999999999     4.810338105320664   0.0  
C   0.5290000000000011     5.726592982524595   0.0  
C   0.2645000000000012     6.184720421126568   0.0  
C   -0.2644999999999988     6.184720421126568   0.0  
C   -0.5289999999999988     5.726592982524595   0.0  
C   0.5290000000000014     6.642847859728533   0.0  
C   0.26450000000000135     7.100975298330507   0.0  
C   -0.2644999999999986     7.100975298330507   0.0  
C   -0.5289999999999987     6.642847859728533   0.0  
C   0.5290000000000015     7.559102736932473   0.0  
C   0.26450000000000157     8.017230175534445   0.0  
C   -0.2644999999999984     8.017230175534445   0.0  
C   -0.5289999999999985     7.559102736932473   0.0  
C   0.5290000000000016     8.475357614136405   0.0  
C   0.26450000000000173     8.933485052738378   0.0  
C   -0.26449999999999824     8.933485052738378   0.0  
C   -0.5289999999999984     8.475357614136405   0.0  
C   0.5290000000000018     9.391612491340343   0.0  
C   0.2645000000000019     9.849739929942317   0.0  
C   -0.26449999999999807     9.849739929942317   0.0  
C   -0.5289999999999981     9.391612491340343   0.0  
C   0.529000000000002     10.307867368544274   0.0  
C   0.26450000000000207     10.765994807146248   0.0  
C   -0.2644999999999979     10.765994807146248   0.0  
C   -0.5289999999999979     10.307867368544274   0.0  
C   0.5290000000000021     11.224122245748212   0.0  
C   0.26450000000000223     11.682249684350186   0.0  
C   -0.26449999999999774     11.682249684350186   0.0  
C   -0.5289999999999978     11.224122245748212   0.0  
C   0.5290000000000022     12.140377122952152   0.0  
C   0.2645000000000024     12.598504561554124   0.0  
C   -0.26449999999999757     12.598504561554124   0.0  
C   -0.5289999999999976     12.140377122952152   0.0  
C   0.5290000000000025     13.056632000156084   0.0  
C   0.2645000000000026     13.514759438758055   0.0  
C   -0.26449999999999735     13.514759438758055   0.0  
C   -0.5289999999999975     13.056632000156084   0.0  
C   0.5290000000000027     13.972886877360022   0.0  
C   0.2645000000000028     14.431014315961994   0.0  
C   -0.2644999999999972     14.431014315961994   0.0  
C   -0.5289999999999973     13.972886877360022   0.0  
C   0.5290000000000028     14.88914175456396   0.0  
C   0.26450000000000295     15.347269193165934   0.0  
C   -0.264499999999997     15.347269193165934   0.0  
C   -0.5289999999999971     14.88914175456396   0.0  
C   0.5290000000000029     15.805396631767891   0.0  
C   0.2645000000000031     16.263524070369865   0.0  
C   -0.26449999999999685     16.263524070369865   0.0  
C   -0.5289999999999969     15.805396631767891   0.0  
C   0.5290000000000032     16.72165150897183   0.0  
C   0.2645000000000033     17.1797789475738   0.0  
C   -0.2644999999999967     17.1797789475738   0.0  
C   -0.5289999999999967     16.72165150897183   0.0  
C   0.5290000000000035     17.637906386175768   0.0  
C   0.26450000000000345     18.09603382477774   0.0  
C   -0.2644999999999965     18.09603382477774   0.0  
C   -0.5289999999999966     17.637906386175768   0.0  
C   0.5290000000000036     18.5541612633797   0.0  
C   0.2645000000000037     19.012288701981674   0.0  
C   -0.2644999999999963     19.012288701981674   0.0  
C   -0.5289999999999964     18.5541612633797   0.0  
C   0.5290000000000037     19.470416140583637   0.0  
C   0.26450000000000384     19.92854357918561   0.0  
C   -0.2644999999999961     19.92854357918561   0.0  
C   -0.5289999999999963     19.470416140583637   0.0  
C   0.5290000000000039     20.386671017787577   0.0  
C   0.264500000000004     20.84479845638955   0.0  
C   -0.26449999999999596     20.84479845638955   0.0  
C   -0.528999999999996     20.386671017787577   0.0  
C   0.5290000000000041     21.302925894991507   0.0  
C   0.2645000000000042     21.76105333359348   0.0  
C   -0.2644999999999958     21.76105333359348   0.0  
C   -0.5289999999999958     21.302925894991507   0.0  
C   0.5290000000000042     22.219180772195447   0.0  
C   0.26450000000000434     22.67730821079742   0.0  
C   -0.2644999999999956     22.67730821079742   0.0  
C   -0.5289999999999957     22.219180772195447   0.0  
C   0.5290000000000044     23.135435649399387   0.0  
C   0.2645000000000045     23.593563088001357   0.0  
C   -0.2644999999999954     23.593563088001357   0.0  
C   -0.5289999999999955     23.135435649399387   0.0  
C   0.5290000000000046     24.051690526603316   0.0  
C   0.26450000000000473     24.50981796520529   0.0  
C   -0.26449999999999524     24.50981796520529   0.0  
C   -0.5289999999999954     24.051690526603316   0.0  
C   0.5290000000000048     24.967945403807256   0.0  
C   0.2645000000000049     25.42607284240923   0.0  
C   -0.2644999999999951     25.42607284240923   0.0  
C   -0.5289999999999951     24.967945403807256   0.0  
C   0.5290000000000049     25.884200281011193   0.0  
C   0.26450000000000506     26.342327719613166   0.0  
C   -0.2644999999999949     26.342327719613166   0.0  
C   -0.528999999999995     25.884200281011193   0.0  
C   0.529000000000005     26.800455158215126   0.0  
C   0.26450000000000523     27.2585825968171   0.0  
C   -0.26449999999999474     27.2585825968171   0.0  
C   -0.5289999999999948     26.800455158215126   0.0  
C   0.5290000000000054     27.716710035419062   0.0  
C   0.2645000000000054     28.174837474021036   0.0  
C   -0.2644999999999946     28.174837474021036   0.0  
C   -0.5289999999999946     27.716710035419062   0.0  
C   0.5290000000000056     28.632964912623002   0.0  
C   0.2645000000000056     29.091092351224976   0.0  
C   -0.26449999999999435     29.091092351224976   0.0  
C   -0.5289999999999945     28.632964912623002   0.0  
C   0.5290000000000057     29.549219789826935   0.0  
C   0.2645000000000058     30.007347228428905   0.0  
C   -0.2644999999999942     30.007347228428905   0.0  
C   -0.5289999999999943     29.549219789826935   0.0  
C   0.5290000000000058     30.465474667030872   0.0  
C   0.26450000000000595     30.923602105632845   0.0  
C   -0.264499999999994     30.923602105632845   0.0  
C   -0.5289999999999941     30.465474667030872   0.0  
C   0.529000000000006     31.381729544234805   0.0  
C   0.2645000000000061     31.839856982836768   0.0  
C   -0.26449999999999385     31.839856982836768   0.0  
C   -0.5289999999999939     31.381729544234805   0.0  
C   0.5290000000000062     32.297984421438755   0.0  
C   0.2645000000000063     32.75611186004072   0.0  
C   -0.2644999999999937     32.75611186004072   0.0  
C   -0.5289999999999937     32.297984421438755   0.0  
C   0.5290000000000064     33.21423929864269   0.0  
C   0.26450000000000645     33.672366737244644   0.0  
C   -0.2644999999999935     33.672366737244644   0.0  
C   -0.5289999999999936     33.21423929864269   0.0  
C   0.5290000000000065     34.13049417584662   0.0  
C   0.2645000000000067     34.58862161444858   0.0  
C   -0.2644999999999933     34.58862161444858   0.0  
C   -0.5289999999999934     34.13049417584662   0.0  
C   0.5290000000000067     35.04674905305057   0.0  
C   0.26450000000000684     35.504876491652524   0.0  
C   -0.26449999999999313     35.504876491652524   0.0  
C   -0.5289999999999933     35.04674905305057   0.0  
C   0.5290000000000069     35.963003930254494   0.0  
C   0.264500000000007     36.42113136885646   0.0  
C   -0.26449999999999296     36.42113136885646   0.0  
C   -0.528999999999993     35.963003930254494   0.0  
