61
Generated with pygra
C   -1.8514999999999977     -2.2906371930098417   0.0  
C   -1.5869999999999969     -2.748764631611809   0.0  
C   -1.8514999999999984     -1.3743823158059048   0.0  
C   -1.5869999999999984     -1.8325097544078726   0.0  
C   -1.8514999999999995     -0.458127438601969   0.0  
C   -1.5869999999999989     -0.9162548772039372   0.0  
C   -1.8515000000000008     0.45812743860196653   0.0  
C   -1.5870000000000002     -1.2920775560587572e-15   0.0  
C   -1.8515000000000013     1.3743823158059028   0.0  
C   -1.5870000000000009     0.9162548772039348   0.0  
C   -1.8515000000000015     2.2906371930098386   0.0  
C   -1.5870000000000013     1.8325097544078708   0.0  
C   -1.5870000000000026     2.7487646316118064   0.0  
C   -1.057999999999997     -2.7487646316118086   0.0  
C   -1.0579999999999985     -1.8325097544078726   0.0  
C   -0.7934999999999982     -2.2906371930098404   0.0  
C   -1.0579999999999996     -0.916254877203937   0.0  
C   -0.7934999999999993     -1.3743823158059048   0.0  
C   -1.0580000000000003     -9.984235660454033e-16   0.0  
C   -0.7934999999999998     -0.45812743860196875   0.0  
C   -1.0580000000000007     0.9162548772039353   0.0  
C   -0.7935000000000003     0.4581274386019674   0.0  
C   -1.0580000000000018     1.8325097544078708   0.0  
C   -0.7935000000000014     1.3743823158059028   0.0  
C   -1.0580000000000012     2.7487646316118077   0.0  
C   -0.7935000000000012     2.2906371930098395   0.0  
C   -0.2644999999999989     -2.290637193009841   0.0  
C   -0.264499999999999     -1.3743823158059043   0.0  
C   1.1158851620507449e-15     -1.8325097544078721   0.0  
C   -0.2644999999999995     -0.45812743860196814   0.0  
C   8.809619700400618e-16     -0.916254877203936   0.0  
C   -0.26450000000000085     0.4581274386019676   0.0  
C   -4.551636845206986e-16     -2.0555779300934775e-16   0.0  
C   -0.26450000000000035     1.3743823158059043   0.0  
C   -5.873079800267078e-17     0.9162548772039364   0.0  
C   -0.26450000000000173     2.2906371930098395   0.0  
C   -1.4682699500667697e-15     1.8325097544078721   0.0  
C   0.5290000000000012     -1.8325097544078717   0.0  
C   0.529     -0.9162548772039357   0.0  
C   0.7935000000000008     -1.3743823158059039   0.0  
C   0.5290000000000007     8.515965710387264e-16   0.0  
C   0.7935000000000008     -0.458127438601967   0.0  
C   0.5289999999999994     0.9162548772039363   0.0  
C   0.7934999999999995     0.45812743860196875   0.0  
C   0.5289999999999981     1.8325097544078721   0.0  
C   0.7934999999999984     1.3743823158059043   0.0  
C   1.3225000000000016     -1.3743823158059023   0.0  
C   1.3225     -0.45812743860196686   0.0  
C   1.5870000000000006     -0.9162548772039345   0.0  
C   1.3224999999999991     0.4581274386019691   0.0  
C   1.5869999999999993     1.1746159600534156e-15   0.0  
C   1.3224999999999993     1.3743823158059056   0.0  
C   1.5869999999999995     0.9162548772039375   0.0  
C   2.1159999999999997     -0.9162548772039348   0.0  
C   2.1160000000000005     2.114308728096148e-15   0.0  
C   2.380500000000001     -0.45812743860196603   0.0  
C   2.1159999999999988     0.9162548772039374   0.0  
C   2.3804999999999996     0.4581274386019698   0.0  
C   2.9094999999999995     -0.4581274386019657   0.0  
C   2.9094999999999986     0.4581274386019697   0.0  
C   3.173999999999999     2.2317703241014897e-15   0.0  
