96
Generated with pygra
C   -0.2645     -3.20689207021   0.0  
C   0.2645     -3.20689207021   0.0  
C   -1.058     -2.74876463161   0.0  
C   -0.529     -2.74876463161   0.0  
C   -1.8515     -2.29063719301   0.0  
C   -1.3225     -2.29063719301   0.0  
C   -2.645     -1.83250975441   0.0  
C   -2.116     -1.83250975441   0.0  
C   -2.9095     -1.37438231581   0.0  
C   0.529     -2.74876463161   0.0  
C   1.058     -2.74876463161   0.0  
C   -0.2645     -2.29063719301   0.0  
C   0.2645     -2.29063719301   0.0  
C   -1.058     -1.83250975441   0.0  
C   -0.529     -1.83250975441   0.0  
C   -1.8515     -1.37438231581   0.0  
C   -1.3225     -1.37438231581   0.0  
C   -2.645     -0.916254877204   0.0  
C   -2.116     -0.916254877204   0.0  
C   -2.9095     -0.458127438602   0.0  
C   1.3225     -2.29063719301   0.0  
C   1.8515     -2.29063719301   0.0  
C   0.529     -1.83250975441   0.0  
C   1.058     -1.83250975441   0.0  
C   -0.2645     -1.37438231581   0.0  
C   0.2645     -1.37438231581   0.0  
C   -1.058     -0.916254877204   0.0  
C   -0.529     -0.916254877204   0.0  
C   -1.8515     -0.458127438602   0.0  
C   -1.3225     -0.458127438602   0.0  
C   -2.645     -2.23666455727e-15   0.0  
C   -2.116     -1.88427976925e-15   0.0  
C   -2.9095     0.458127438602   0.0  
C   2.116     -1.83250975441   0.0  
C   2.645     -1.83250975441   0.0  
C   1.3225     -1.37438231581   0.0  
C   1.8515     -1.37438231581   0.0  
C   0.529     -0.916254877204   0.0  
C   1.058     -0.916254877204   0.0  
C   -0.2645     -0.458127438602   0.0  
C   0.2645     -0.458127438602   0.0  
C   -1.058     -1.00331779921e-15   0.0  
C   -0.529     -7.390292082e-16   0.0  
C   -1.8515     0.458127438602   0.0  
C   -1.3225     0.458127438602   0.0  
C   -2.645     0.916254877204   0.0  
C   -2.116     0.916254877204   0.0  
C   -2.9095     1.37438231581   0.0  
C   2.9095     -1.37438231581   0.0  
C   2.116     -0.916254877204   0.0  
C   2.645     -0.916254877204   0.0  
C   1.3225     -0.458127438602   0.0  
C   1.8515     -0.458127438602   0.0  
C   0.529     5.38365648358e-17   0.0  
C   1.058     4.06221352852e-16   0.0  
C   -0.2645     0.458127438602   0.0  
C   0.2645     0.458127438602   0.0  
C   -1.058     0.916254877204   0.0  
C   -0.529     0.916254877204   0.0  
C   -1.8515     1.37438231581   0.0  
C   -1.3225     1.37438231581   0.0  
C   -2.645     1.83250975441   0.0  
C   -2.116     1.83250975441   0.0  
C   2.9095     -0.458127438602   0.0  
C   2.116     1.05226013088e-15   0.0  
C   2.645     1.99195289892e-15   0.0  
C   1.3225     0.458127438602   0.0  
C   1.8515     0.458127438602   0.0  
C   0.529     0.916254877204   0.0  
C   1.058     0.916254877204   0.0  
C   -0.2645     1.37438231581   0.0  
C   0.2645     1.37438231581   0.0  
C   -1.058     1.83250975441   0.0  
C   -0.529     1.83250975441   0.0  
C   -1.8515     2.29063719301   0.0  
C   -1.3225     2.29063719301   0.0  
C   2.9095     0.458127438602   0.0  
C   2.116     0.916254877204   0.0  
C   2.645     0.916254877204   0.0  
C   1.3225     1.37438231581   0.0  
C   1.8515     1.37438231581   0.0  
C   0.529     1.83250975441   0.0  
C   1.058     1.83250975441   0.0  
C   -0.2645     2.29063719301   0.0  
C   0.2645     2.29063719301   0.0  
C   -1.058     2.74876463161   0.0  
C   -0.529     2.74876463161   0.0  
C   2.9095     1.37438231581   0.0  
C   2.116     1.83250975441   0.0  
C   2.645     1.83250975441   0.0  
C   1.3225     2.29063719301   0.0  
C   1.8515     2.29063719301   0.0  
C   0.529     2.74876463161   0.0  
C   1.058     2.74876463161   0.0  
C   -0.2645     3.20689207021   0.0  
C   0.2645     3.20689207021   0.0  
